<?xml version="1.0" encoding="UTF-8"?>

<!-- generated on 2022-03-19 14:48:32 by Eclipse SUMO sumo Version 1.12.0
-->

<configuration xmlns:xsi="http://www.w3.org/2001/XMLSchema-instance" xsi:noNamespaceSchemaLocation="http://sumo.dlr.de/xsd/sumoConfiguration.xsd">

    <input>
        <net-file value="junction.net.xml"/>
        <route-files value="junction.rou.xml"/>
    </input>

    <processing>
        <ignore-route-errors value="true"/>
    </processing>

    <routing>
        <device.rerouting.adaptation-steps value="18"/>
        <device.rerouting.adaptation-interval value="10"/>
    </routing>

    <report>
        <verbose value="true"/>
        <duration-log.statistics value="true"/>
        <no-step-log value="true"/>
    </report>

    <viewsettings>
        <delay value="100"/>
    </viewsettings>

</configuration>
