<?xml version="1.0" encoding="UTF-8"?>

<net version="1.9" junctionCornerDetail="5" lefthand="true" limitTurnSpeed="5.50" xmlns:xsi="http://www.w3.org/2001/XMLSchema-instance" xsi:noNamespaceSchemaLocation="http://sumo.dlr.de/xsd/net_file.xsd">

    <location netOffset="0.00,0.00" convBoundary="-100.00,100.00,100.00,300.00" origBoundary="-10000000000.00,-10000000000.00,10000000000.00,10000000000.00" projParameter="!"/>

    <edge id=":J2_0" function="internal">
        <lane id=":J2_0_0" index="0" speed="6.51" length="9.03" shape="-1.60,192.80 -1.95,195.25 -3.00,197.00 -4.75,198.05 -7.20,198.40"/>
    </edge>
    <edge id=":J2_1" function="internal">
        <lane id=":J2_1_0" index="0" speed="13.89" length="14.40" shape="-1.60,192.80 -1.60,207.20"/>
    </edge>
    <edge id=":J2_2" function="internal">
        <lane id=":J2_2_0" index="0" speed="8.00" length="14.19" shape="-1.60,192.80 -1.05,196.65 0.60,199.40 3.35,201.05 7.20,201.60"/>
    </edge>
    <edge id=":J2_3" function="internal">
        <lane id=":J2_3_0" index="0" speed="3.65" length="4.67" shape="-1.60,192.80 -0.80,194.00 0.00,194.40 0.80,194.00 1.60,192.80"/>
    </edge>
    <edge id=":J2_4" function="internal">
        <lane id=":J2_4_0" index="0" speed="6.51" length="9.03" shape="7.20,198.40 4.75,198.05 3.00,197.00 1.95,195.25 1.60,192.80"/>
    </edge>
    <edge id=":J2_5" function="internal">
        <lane id=":J2_5_0" index="0" speed="13.89" length="14.40" shape="7.20,198.40 -7.20,198.40"/>
    </edge>
    <edge id=":J2_6" function="internal">
        <lane id=":J2_6_0" index="0" speed="8.00" length="14.19" shape="7.20,198.40 3.35,198.95 0.60,200.60 -1.05,203.35 -1.60,207.20"/>
    </edge>
    <edge id=":J2_7" function="internal">
        <lane id=":J2_7_0" index="0" speed="3.65" length="4.67" shape="7.20,198.40 6.00,199.20 5.60,200.00 6.00,200.80 7.20,201.60"/>
    </edge>
    <edge id=":J2_8" function="internal">
        <lane id=":J2_8_0" index="0" speed="6.51" length="9.03" shape="1.60,207.20 1.95,204.75 3.00,203.00 4.75,201.95 7.20,201.60"/>
    </edge>
    <edge id=":J2_9" function="internal">
        <lane id=":J2_9_0" index="0" speed="13.89" length="14.40" shape="1.60,207.20 1.60,192.80"/>
    </edge>
    <edge id=":J2_10" function="internal">
        <lane id=":J2_10_0" index="0" speed="8.00" length="14.19" shape="1.60,207.20 1.05,203.35 -0.60,200.60 -3.35,198.95 -7.20,198.40"/>
    </edge>
    <edge id=":J2_11" function="internal">
        <lane id=":J2_11_0" index="0" speed="6.51" length="9.03" shape="-7.20,201.60 -4.75,201.95 -3.00,203.00 -1.95,204.75 -1.60,207.20"/>
    </edge>
    <edge id=":J2_12" function="internal">
        <lane id=":J2_12_0" index="0" speed="13.89" length="14.40" shape="-7.20,201.60 7.20,201.60"/>
    </edge>
    <edge id=":J2_13" function="internal">
        <lane id=":J2_13_0" index="0" speed="8.00" length="14.19" shape="-7.20,201.60 -3.35,201.05 -0.60,199.40 1.05,196.65 1.60,192.80"/>
    </edge>
    <edge id=":J2_14" function="internal">
        <lane id=":J2_14_0" index="0" speed="3.65" length="4.67" shape="-7.20,201.60 -6.00,200.80 -5.60,200.00 -6.00,199.20 -7.20,198.40"/>
    </edge>

    <edge id="-E0" from="J2" to="J1" priority="-1">
        <lane id="-E0_0" index="0" speed="13.89" length="92.80" shape="-7.20,198.40 -100.00,198.40"/>
    </edge>
    <edge id="-E1" from="J3" to="J2" priority="-1">
        <lane id="-E1_0" index="0" speed="13.89" length="92.80" shape="100.00,198.40 7.20,198.40"/>
    </edge>
    <edge id="-E2" from="J2" to="J4" priority="-1">
        <lane id="-E2_0" index="0" speed="13.89" length="92.80" shape="1.60,192.80 1.60,100.00"/>
    </edge>
    <edge id="-E3" from="J5" to="J2" priority="-1">
        <lane id="-E3_0" index="0" speed="13.89" length="92.80" shape="1.60,300.00 1.60,207.20"/>
    </edge>
    <edge id="E0" from="J1" to="J2" priority="-1">
        <lane id="E0_0" index="0" speed="13.89" length="92.80" shape="-100.00,201.60 -7.20,201.60"/>
    </edge>
    <edge id="E1" from="J2" to="J3" priority="-1">
        <lane id="E1_0" index="0" speed="13.89" length="92.80" shape="7.20,201.60 100.00,201.60"/>
    </edge>
    <edge id="E2" from="J4" to="J2" priority="-1" shape="0.00,100.00 0.00,189.96 0.00,200.00">
        <lane id="E2_0" index="0" speed="13.89" length="92.80" shape="-1.60,100.00 -1.60,189.96 -1.60,192.80"/>
    </edge>
    <edge id="E3" from="J2" to="J5" priority="-1">
        <lane id="E3_0" index="0" speed="13.89" length="92.80" shape="-1.60,207.20 -1.60,300.00"/>
    </edge>

    <tlLogic id="J2" type="static" programID="0" offset="0">
        <phase duration="42" state="GGggrrrrrrrrrrrr"/>
        <phase duration="3"  state="yyyyrrrrrrrrrrrr"/>
        <phase duration="42" state="rrrrGGGGrrrrrrrr"/>
        <phase duration="3"  state="rrrryyyyrrrrrrrr"/>
        <phase duration="42" state="rrrrrrrrGGggrrrr"/>
        <phase duration="3"  state="rrrrrrrryyyyrrrr"/>
        <phase duration="42" state="rrrrrrrrrrrrGGGG"/>
    </tlLogic>

    <junction id="J1" type="dead_end" x="-100.00" y="200.00" incLanes="-E0_0" intLanes="" shape="-100.00,200.00 -100.00,196.80 -100.00,200.00"/>
    <junction id="J2" type="traffic_light" x="0.00" y="200.00" incLanes="E2_0 -E1_0 -E3_0 E0_0" intLanes=":J2_0_0 :J2_1_0 :J2_2_0 :J2_3_0 :J2_4_0 :J2_5_0 :J2_6_0 :J2_7_0 :J2_8_0 :J2_9_0 :J2_10_0 :J2_11_0 :J2_12_0 :J2_13_0 :J2_14_0" shape="-3.20,192.80 3.20,192.80 3.64,195.02 4.20,195.80 4.98,196.36 5.98,196.69 7.20,196.80 7.20,203.20 4.98,203.64 4.20,204.20 3.64,204.98 3.31,205.98 3.20,207.20 -3.20,207.20 -3.64,204.98 -4.20,204.20 -4.98,203.64 -5.98,203.31 -7.20,203.20 -7.20,196.80 -4.98,196.36 -4.20,195.80 -3.64,195.02 -3.31,194.02">
        <request index="0"  response="000000000000000" foes="100010000100000" cont="0"/>
        <request index="1"  response="000000000000000" foes="011110001100000" cont="0"/>
        <request index="2"  response="000001100000000" foes="011011111100000" cont="0"/>
        <request index="3"  response="010001000010000" foes="010001000010000" cont="0"/>
        <request index="4"  response="000001000000000" foes="010001000001000" cont="0"/>
        <request index="5"  response="000011000000111" foes="110011000000111" cont="0"/>
        <request index="6"  response="011111000000110" foes="011111000000110" cont="0"/>
        <request index="7"  response="001000100000100" foes="001000100000100" cont="0"/>
        <request index="8"  response="000000000000000" foes="001000010000100" cont="0"/>
        <request index="9"  response="000000000000000" foes="011000001111100" cont="0"/>
        <request index="10" response="000000000000111" foes="111000001100111" cont="0"/>
        <request index="11" response="000000000000010" foes="000000001000010" cont="0"/>
        <request index="12" response="000011100000110" foes="000011111000110" cont="0"/>
        <request index="13" response="000011000110110" foes="000011001111110" cont="0"/>
        <request index="14" response="000010000100001" foes="000010000100001" cont="0"/>
    </junction>
    <junction id="J3" type="dead_end" x="100.00" y="200.00" incLanes="E1_0" intLanes="" shape="100.00,200.00 100.00,203.20 100.00,200.00"/>
    <junction id="J4" type="dead_end" x="0.00" y="100.00" incLanes="-E2_0" intLanes="" shape="0.00,100.00 3.20,100.00 0.00,100.00"/>
    <junction id="J5" type="dead_end" x="0.00" y="300.00" incLanes="E3_0" intLanes="" shape="0.00,300.00 -3.20,300.00 0.00,300.00"/>

    <connection from="-E1" to="-E2" fromLane="0" toLane="0" via=":J2_4_0" tl="J2" linkIndex="4" dir="l" state="o"/>
    <connection from="-E1" to="-E0" fromLane="0" toLane="0" via=":J2_5_0" tl="J2" linkIndex="5" dir="s" state="o"/>
    <connection from="-E1" to="E3" fromLane="0" toLane="0" via=":J2_6_0" tl="J2" linkIndex="6" dir="r" state="o"/>
    <connection from="-E1" to="E1" fromLane="0" toLane="0" via=":J2_7_0" tl="J2" linkIndex="7" dir="T" state="o"/>
    <connection from="-E3" to="E1" fromLane="0" toLane="0" via=":J2_8_0" tl="J2" linkIndex="8" dir="l" state="O"/>
    <connection from="-E3" to="-E2" fromLane="0" toLane="0" via=":J2_9_0" tl="J2" linkIndex="9" dir="s" state="O"/>
    <connection from="-E3" to="-E0" fromLane="0" toLane="0" via=":J2_10_0" tl="J2" linkIndex="10" dir="r" state="o"/>
    <connection from="E0" to="E3" fromLane="0" toLane="0" via=":J2_11_0" tl="J2" linkIndex="11" dir="l" state="o"/>
    <connection from="E0" to="E1" fromLane="0" toLane="0" via=":J2_12_0" tl="J2" linkIndex="12" dir="s" state="o"/>
    <connection from="E0" to="-E2" fromLane="0" toLane="0" via=":J2_13_0" tl="J2" linkIndex="13" dir="r" state="o"/>
    <connection from="E0" to="-E0" fromLane="0" toLane="0" via=":J2_14_0" tl="J2" linkIndex="14" dir="T" state="o"/>
    <connection from="E2" to="-E0" fromLane="0" toLane="0" via=":J2_0_0" tl="J2" linkIndex="0" dir="l" state="O"/>
    <connection from="E2" to="E3" fromLane="0" toLane="0" via=":J2_1_0" tl="J2" linkIndex="1" dir="s" state="O"/>
    <connection from="E2" to="E1" fromLane="0" toLane="0" via=":J2_2_0" tl="J2" linkIndex="2" dir="r" state="o"/>
    <connection from="E2" to="-E2" fromLane="0" toLane="0" via=":J2_3_0" tl="J2" linkIndex="3" dir="T" state="o"/>

    <connection from=":J2_0" to="-E0" fromLane="0" toLane="0" dir="l" state="M"/>
    <connection from=":J2_1" to="E3" fromLane="0" toLane="0" dir="s" state="M"/>
    <connection from=":J2_2" to="E1" fromLane="0" toLane="0" dir="r" state="M"/>
    <connection from=":J2_3" to="-E2" fromLane="0" toLane="0" dir="T" state="M"/>
    <connection from=":J2_4" to="-E2" fromLane="0" toLane="0" dir="l" state="M"/>
    <connection from=":J2_5" to="-E0" fromLane="0" toLane="0" dir="s" state="M"/>
    <connection from=":J2_6" to="E3" fromLane="0" toLane="0" dir="r" state="M"/>
    <connection from=":J2_7" to="E1" fromLane="0" toLane="0" dir="T" state="M"/>
    <connection from=":J2_8" to="E1" fromLane="0" toLane="0" dir="l" state="M"/>
    <connection from=":J2_9" to="-E2" fromLane="0" toLane="0" dir="s" state="M"/>
    <connection from=":J2_10" to="-E0" fromLane="0" toLane="0" dir="r" state="M"/>
    <connection from=":J2_11" to="E3" fromLane="0" toLane="0" dir="l" state="M"/>
    <connection from=":J2_12" to="E1" fromLane="0" toLane="0" dir="s" state="M"/>
    <connection from=":J2_13" to="-E2" fromLane="0" toLane="0" dir="r" state="M"/>
    <connection from=":J2_14" to="-E0" fromLane="0" toLane="0" dir="T" state="M"/>

</net>
