<?xml version="1.0" encoding="UTF-8"?>

<!-- generated on 2023-02-06 01:36:48 by Eclipse SUMO netedit Version 1.12.0
<configuration xmlns:xsi="http://www.w3.org/2001/XMLSchema-instance" xsi:noNamespaceSchemaLocation="http://sumo.dlr.de/xsd/netconvertConfiguration.xsd">

    <input>
        <sumo-net-file value="C:\Users\sandeep\Desktop\Desktop\projects\minor\fuzzy-traffic\junction.net.xml"/>
    </input>

    <output>
        <output-file value="C:\Users\sandeep\Desktop\Desktop\projects\minor\fuzzy-traffic\junction.net.xml"/>
    </output>

    <processing>
        <geometry.min-radius.fix.railways value="false"/>
        <geometry.max-grade.fix value="false"/>
        <offset.disable-normalization value="true"/>
        <lefthand value="true"/>
    </processing>

    <junctions>
        <no-turnarounds value="true"/>
        <junctions.corner-detail value="5"/>
        <junctions.limit-turn-speed value="5.5"/>
        <rectangular-lane-cut value="false"/>
    </junctions>

    <pedestrian>
        <walkingareas value="false"/>
    </pedestrian>

    <report>
        <aggregate-warnings value="5"/>
    </report>

</configuration>
-->

<net version="1.9" junctionCornerDetail="5" lefthand="true" limitTurnSpeed="5.50" xmlns:xsi="http://www.w3.org/2001/XMLSchema-instance" xsi:noNamespaceSchemaLocation="http://sumo.dlr.de/xsd/net_file.xsd">

    <location netOffset="0.00,0.00" convBoundary="-200.00,0.00,200.00,400.00" origBoundary="-10000000000.00,-10000000000.00,10000000000.00,10000000000.00" projParameter="!"/>

    <edge id=":J2_0" function="internal">
        <lane id=":J2_0_0" index="0" speed="6.51" length="9.03" shape="-8.00,186.40 -8.35,188.85 -9.40,190.60 -11.15,191.65 -13.60,192.00"/>
    </edge>
    <edge id=":J2_1" function="internal">
        <lane id=":J2_1_0" index="0" speed="13.89" length="27.20" shape="-8.00,186.40 -8.00,213.60"/>
        <lane id=":J2_1_1" index="1" speed="13.89" length="27.20" shape="-4.80,186.40 -4.80,213.60"/>
        <lane id=":J2_1_2" index="2" speed="13.89" length="27.20" shape="-1.60,186.40 -1.60,213.60"/>
    </edge>
    <edge id=":J2_4" function="internal">
        <lane id=":J2_4_0" index="0" speed="10.36" length="5.01" shape="-1.60,186.40 -0.89,191.36"/>
    </edge>
    <edge id=":J2_5" function="internal">
        <lane id=":J2_5_0" index="0" speed="3.65" length="1.44" shape="-1.60,186.40 -0.80,187.60"/>
    </edge>
    <edge id=":J2_24" function="internal">
        <lane id=":J2_24_0" index="0" speed="10.36" length="19.50" shape="-0.89,191.36 -0.65,193.05 2.20,197.80 6.95,200.65 13.60,201.60"/>
    </edge>
    <edge id=":J2_25" function="internal">
        <lane id=":J2_25_0" index="0" speed="3.65" length="3.23" shape="-0.80,187.60 0.00,188.00 0.80,187.60 1.60,186.40"/>
    </edge>
    <edge id=":J2_6" function="internal">
        <lane id=":J2_6_0" index="0" speed="6.51" length="9.03" shape="13.60,192.00 11.15,191.65 9.40,190.60 8.35,188.85 8.00,186.40"/>
    </edge>
    <edge id=":J2_7" function="internal">
        <lane id=":J2_7_0" index="0" speed="13.89" length="27.20" shape="13.60,192.00 -13.60,192.00"/>
        <lane id=":J2_7_1" index="1" speed="13.89" length="27.20" shape="13.60,195.20 -13.60,195.20"/>
        <lane id=":J2_7_2" index="2" speed="13.89" length="27.20" shape="13.60,198.40 -13.60,198.40"/>
    </edge>
    <edge id=":J2_10" function="internal">
        <lane id=":J2_10_0" index="0" speed="10.36" length="5.01" shape="13.60,198.40 8.64,199.11"/>
    </edge>
    <edge id=":J2_11" function="internal">
        <lane id=":J2_11_0" index="0" speed="3.65" length="1.44" shape="13.60,198.40 12.40,199.20"/>
    </edge>
    <edge id=":J2_26" function="internal">
        <lane id=":J2_26_0" index="0" speed="10.36" length="19.50" shape="8.64,199.11 6.95,199.35 2.20,202.20 -0.65,206.95 -1.60,213.60"/>
    </edge>
    <edge id=":J2_27" function="internal">
        <lane id=":J2_27_0" index="0" speed="3.65" length="3.23" shape="12.40,199.20 12.00,200.00 12.40,200.80 13.60,201.60"/>
    </edge>
    <edge id=":J2_12" function="internal">
        <lane id=":J2_12_0" index="0" speed="6.51" length="9.03" shape="8.00,213.60 8.35,211.15 9.40,209.40 11.15,208.35 13.60,208.00"/>
    </edge>
    <edge id=":J2_13" function="internal">
        <lane id=":J2_13_0" index="0" speed="13.89" length="27.20" shape="8.00,213.60 8.00,186.40"/>
        <lane id=":J2_13_1" index="1" speed="13.89" length="27.20" shape="4.80,213.60 4.80,186.40"/>
        <lane id=":J2_13_2" index="2" speed="13.89" length="27.20" shape="1.60,213.60 1.60,186.40"/>
    </edge>
    <edge id=":J2_16" function="internal">
        <lane id=":J2_16_0" index="0" speed="10.36" length="5.01" shape="1.60,213.60 0.89,208.64"/>
    </edge>
    <edge id=":J2_17" function="internal">
        <lane id=":J2_17_0" index="0" speed="3.65" length="1.44" shape="1.60,213.60 0.80,212.40"/>
    </edge>
    <edge id=":J2_28" function="internal">
        <lane id=":J2_28_0" index="0" speed="10.36" length="19.50" shape="0.89,208.64 0.65,206.95 -2.20,202.20 -6.95,199.35 -13.60,198.40"/>
    </edge>
    <edge id=":J2_29" function="internal">
        <lane id=":J2_29_0" index="0" speed="3.65" length="3.23" shape="0.80,212.40 0.00,212.00 -0.80,212.40 -1.60,213.60"/>
    </edge>
    <edge id=":J2_18" function="internal">
        <lane id=":J2_18_0" index="0" speed="6.51" length="9.03" shape="-13.60,208.00 -11.15,208.35 -9.40,209.40 -8.35,211.15 -8.00,213.60"/>
    </edge>
    <edge id=":J2_19" function="internal">
        <lane id=":J2_19_0" index="0" speed="13.89" length="27.20" shape="-13.60,208.00 13.60,208.00"/>
        <lane id=":J2_19_1" index="1" speed="13.89" length="27.20" shape="-13.60,204.80 13.60,204.80"/>
        <lane id=":J2_19_2" index="2" speed="13.89" length="27.20" shape="-13.60,201.60 13.60,201.60"/>
    </edge>
    <edge id=":J2_22" function="internal">
        <lane id=":J2_22_0" index="0" speed="10.36" length="5.01" shape="-13.60,201.60 -8.64,200.89"/>
    </edge>
    <edge id=":J2_23" function="internal">
        <lane id=":J2_23_0" index="0" speed="3.65" length="1.44" shape="-13.60,201.60 -12.40,200.80"/>
    </edge>
    <edge id=":J2_30" function="internal">
        <lane id=":J2_30_0" index="0" speed="10.36" length="19.50" shape="-8.64,200.89 -6.95,200.65 -2.20,197.80 0.65,193.05 1.60,186.40"/>
    </edge>
    <edge id=":J2_31" function="internal">
        <lane id=":J2_31_0" index="0" speed="3.65" length="3.23" shape="-12.40,200.80 -12.00,200.00 -12.40,199.20 -13.60,198.40"/>
    </edge>

    <edge id="-E0" from="J2" to="J1" priority="-1">
        <lane id="-E0_0" index="0" speed="13.89" length="186.40" shape="-13.60,192.00 -200.00,192.00"/>
        <lane id="-E0_1" index="1" speed="13.89" length="186.40" shape="-13.60,195.20 -200.00,195.20"/>
        <lane id="-E0_2" index="2" speed="13.89" length="186.40" shape="-13.60,198.40 -200.00,198.40"/>
    </edge>
    <edge id="-E1" from="J3" to="J2" priority="-1">
        <lane id="-E1_0" index="0" speed="13.89" length="186.40" shape="200.00,192.00 13.60,192.00"/>
        <lane id="-E1_1" index="1" speed="13.89" length="186.40" shape="200.00,195.20 13.60,195.20"/>
        <lane id="-E1_2" index="2" speed="13.89" length="186.40" shape="200.00,198.40 13.60,198.40"/>
    </edge>
    <edge id="-E2" from="J2" to="J4" priority="-1">
        <lane id="-E2_0" index="0" speed="13.89" length="186.40" shape="8.00,186.40 8.00,0.00"/>
        <lane id="-E2_1" index="1" speed="13.89" length="186.40" shape="4.80,186.40 4.80,0.00"/>
        <lane id="-E2_2" index="2" speed="13.89" length="186.40" shape="1.60,186.40 1.60,0.00"/>
    </edge>
    <edge id="-E3" from="J5" to="J2" priority="-1">
        <lane id="-E3_0" index="0" speed="13.89" length="186.40" shape="8.00,400.00 8.00,213.60"/>
        <lane id="-E3_1" index="1" speed="13.89" length="186.40" shape="4.80,400.00 4.80,213.60"/>
        <lane id="-E3_2" index="2" speed="13.89" length="186.40" shape="1.60,400.00 1.60,213.60"/>
    </edge>
    <edge id="E0" from="J1" to="J2" priority="-1">
        <lane id="E0_0" index="0" speed="13.89" length="186.40" shape="-200.00,208.00 -13.60,208.00"/>
        <lane id="E0_1" index="1" speed="13.89" length="186.40" shape="-200.00,204.80 -13.60,204.80"/>
        <lane id="E0_2" index="2" speed="13.89" length="186.40" shape="-200.00,201.60 -13.60,201.60"/>
    </edge>
    <edge id="E1" from="J2" to="J3" priority="-1">
        <lane id="E1_0" index="0" speed="13.89" length="186.40" shape="13.60,208.00 200.00,208.00"/>
        <lane id="E1_1" index="1" speed="13.89" length="186.40" shape="13.60,204.80 200.00,204.80"/>
        <lane id="E1_2" index="2" speed="13.89" length="186.40" shape="13.60,201.60 200.00,201.60"/>
    </edge>
    <edge id="E2" from="J4" to="J2" priority="-1" shape="0.00,0.00 0.00,189.96 0.00,200.00">
        <lane id="E2_0" index="0" speed="13.89" length="186.40" shape="-8.00,0.00 -8.00,186.40"/>
        <lane id="E2_1" index="1" speed="13.89" length="186.40" shape="-4.80,0.00 -4.80,186.40"/>
        <lane id="E2_2" index="2" speed="13.89" length="186.40" shape="-1.60,0.00 -1.60,186.40"/>
    </edge>
    <edge id="E3" from="J2" to="J5" priority="-1">
        <lane id="E3_0" index="0" speed="13.89" length="186.40" shape="-8.00,213.60 -8.00,400.00"/>
        <lane id="E3_1" index="1" speed="13.89" length="186.40" shape="-4.80,213.60 -4.80,400.00"/>
        <lane id="E3_2" index="2" speed="13.89" length="186.40" shape="-1.60,213.60 -1.60,400.00"/>
    </edge>

    <tlLogic id="J2" type="static" programID="0" offset="0">
        <phase duration="30" state="GggggGGrrrrGGrrrrGGrrrrG"/>
        <phase duration="3"  state="GyyyyGGrrrrGGrrrrGGrrrrG"/>
        <phase duration="30" state="GrrrrGGggggGGrrrrGGrrrrG"/>
        <phase duration="3"  state="GrrrrGGyyyyGGrrrrGGrrrrG"/>
        <phase duration="30" state="GrrrrGGrrrrGGggggGGrrrrG"/>
        <phase duration="3"  state="GrrrrGGrrrrGGyyyyGGrrrrG"/>
        <phase duration="30" state="GrrrrGGrrrrGGrrrrGGggggG"/>
        <phase duration="3"  state="GrrrrGGrrrrGGrrrrGGyyyyG"/>
    </tlLogic>

    <junction id="J1" type="dead_end" x="-200.00" y="200.00" incLanes="-E0_0 -E0_1 -E0_2" intLanes="" shape="-200.00,200.00 -200.00,190.40 -200.00,200.00"/>
    <junction id="J2" type="traffic_light" x="0.00" y="200.00" incLanes="E2_0 E2_1 E2_2 -E1_0 -E1_1 -E1_2 -E3_0 -E3_1 -E3_2 E0_0 E0_1 E0_2" intLanes=":J2_0_0 :J2_1_0 :J2_1_1 :J2_1_2 :J2_24_0 :J2_25_0 :J2_6_0 :J2_7_0 :J2_7_1 :J2_7_2 :J2_26_0 :J2_27_0 :J2_12_0 :J2_13_0 :J2_13_1 :J2_13_2 :J2_28_0 :J2_29_0 :J2_18_0 :J2_19_0 :J2_19_1 :J2_19_2 :J2_30_0 :J2_31_0" shape="-9.60,186.40 9.60,186.40 10.04,188.62 10.60,189.40 11.38,189.96 12.38,190.29 13.60,190.40 13.60,209.60 11.38,210.04 10.60,210.60 10.04,211.38 9.71,212.38 9.60,213.60 -9.60,213.60 -10.04,211.38 -10.60,210.60 -11.38,210.04 -12.38,209.71 -13.60,209.60 -13.60,190.40 -11.38,189.96 -10.60,189.40 -10.04,188.62 -9.71,187.62">
        <request index="0"  response="000000000000000000000000" foes="000000000000001110000000" cont="0"/>
        <request index="1"  response="010000000000010000000000" foes="011111110000011110000000" cont="0"/>
        <request index="2"  response="010000000000010000000000" foes="011111110000011110000000" cont="0"/>
        <request index="3"  response="010000000000010000000000" foes="011111110000011110000000" cont="0"/>
        <request index="4"  response="010000001110010000000000" foes="011110001110111110000000" cont="1"/>
        <request index="5"  response="010000001110000000000000" foes="010000001110000000000000" cont="1"/>
        <request index="6"  response="000000001110000000000000" foes="000000001110000000000000" cont="0"/>
        <request index="7"  response="000000011110000000011111" foes="110000011110000000011111" cont="0"/>
        <request index="8"  response="000000011110000000011111" foes="110000011110000000011111" cont="0"/>
        <request index="9"  response="000000011110000000011111" foes="110000011110000000011111" cont="0"/>
        <request index="10" response="001110011110000000011110" foes="001110111110000000011110" cont="1"/>
        <request index="11" response="001110000000000000010000" foes="001110000000000000010000" cont="1"/>
        <request index="12" response="000000000000000000000000" foes="001110000000000000000000" cont="0"/>
        <request index="13" response="010000000000010000000000" foes="011110000000011111110000" cont="0"/>
        <request index="14" response="010000000000010000000000" foes="011110000000011111110000" cont="0"/>
        <request index="15" response="010000000000010000000000" foes="011110000000011111110000" cont="0"/>
        <request index="16" response="010000000000010000001110" foes="111110000000011110001110" cont="1"/>
        <request index="17" response="000000000000010000001110" foes="000000000000010000001110" cont="1"/>
        <request index="18" response="000000000000000000001110" foes="000000000000000000001110" cont="0"/>
        <request index="19" response="000000011111000000011110" foes="000000011111110000011110" cont="0"/>
        <request index="20" response="000000011111000000011110" foes="000000011111110000011110" cont="0"/>
        <request index="21" response="000000011111000000011110" foes="000000011111110000011110" cont="0"/>
        <request index="22" response="000000011110001110011110" foes="000000011110001110111110" cont="1"/>
        <request index="23" response="000000010000001110000000" foes="000000010000001110000000" cont="1"/>
    </junction>
    <junction id="J3" type="dead_end" x="200.00" y="200.00" incLanes="E1_0 E1_1 E1_2" intLanes="" shape="200.00,200.00 200.00,209.60 200.00,200.00"/>
    <junction id="J4" type="dead_end" x="0.00" y="0.00" incLanes="-E2_0 -E2_1 -E2_2" intLanes="" shape="0.00,-0.00 9.60,-0.00 0.00,-0.00"/>
    <junction id="J5" type="dead_end" x="0.00" y="400.00" incLanes="E3_0 E3_1 E3_2" intLanes="" shape="0.00,400.00 -9.60,400.00 0.00,400.00"/>

    <junction id=":J2_24_0" type="internal" x="-0.89" y="191.36" incLanes=":J2_4_0 -E3_0 -E3_1 -E3_2" intLanes=":J2_7_0 :J2_7_1 :J2_7_2 :J2_10_0 :J2_11_0 :J2_12_0 :J2_13_0 :J2_13_1 :J2_13_2 :J2_19_0 :J2_19_1 :J2_19_2 :J2_22_0"/>
    <junction id=":J2_25_0" type="internal" x="-0.80" y="187.60" incLanes=":J2_5_0 -E1_0 -E3_0 -E3_1 -E3_2 E0_2" intLanes=":J2_6_0 :J2_13_0 :J2_13_1 :J2_13_2 :J2_22_0"/>
    <junction id=":J2_26_0" type="internal" x="8.64" y="199.11" incLanes=":J2_10_0 E0_0 E0_1 E0_2" intLanes=":J2_1_0 :J2_1_1 :J2_1_2 :J2_4_0 :J2_13_0 :J2_13_1 :J2_13_2 :J2_16_0 :J2_17_0 :J2_18_0 :J2_19_0 :J2_19_1 :J2_19_2"/>
    <junction id=":J2_27_0" type="internal" x="12.40" y="199.20" incLanes=":J2_11_0 -E3_0 E0_0 E0_1 E0_2 E2_2" intLanes=":J2_4_0 :J2_12_0 :J2_19_0 :J2_19_1 :J2_19_2"/>
    <junction id=":J2_28_0" type="internal" x="0.89" y="208.64" incLanes=":J2_16_0 E2_0 E2_1 E2_2" intLanes=":J2_0_0 :J2_1_0 :J2_1_1 :J2_1_2 :J2_7_0 :J2_7_1 :J2_7_2 :J2_10_0 :J2_19_0 :J2_19_1 :J2_19_2 :J2_22_0 :J2_23_0"/>
    <junction id=":J2_29_0" type="internal" x="0.80" y="212.40" incLanes=":J2_17_0 -E1_2 E0_0 E2_0 E2_1 E2_2" intLanes=":J2_1_0 :J2_1_1 :J2_1_2 :J2_10_0 :J2_18_0"/>
    <junction id=":J2_30_0" type="internal" x="-8.64" y="200.89" incLanes=":J2_22_0 -E1_0 -E1_1 -E1_2" intLanes=":J2_1_0 :J2_1_1 :J2_1_2 :J2_4_0 :J2_5_0 :J2_6_0 :J2_7_0 :J2_7_1 :J2_7_2 :J2_13_0 :J2_13_1 :J2_13_2 :J2_16_0"/>
    <junction id=":J2_31_0" type="internal" x="-12.40" y="200.80" incLanes=":J2_23_0 -E1_0 -E1_1 -E1_2 -E3_2 E2_0" intLanes=":J2_0_0 :J2_7_0 :J2_7_1 :J2_7_2 :J2_16_0"/>

    <connection from="-E1" to="-E2" fromLane="0" toLane="0" via=":J2_6_0" tl="J2" linkIndex="6" dir="l" state="o"/>
    <connection from="-E1" to="-E0" fromLane="0" toLane="0" via=":J2_7_0" tl="J2" linkIndex="7" dir="s" state="o"/>
    <connection from="-E1" to="-E0" fromLane="1" toLane="1" via=":J2_7_1" tl="J2" linkIndex="8" dir="s" state="o"/>
    <connection from="-E1" to="-E0" fromLane="2" toLane="2" via=":J2_7_2" tl="J2" linkIndex="9" dir="s" state="o"/>
    <connection from="-E1" to="E3" fromLane="2" toLane="2" via=":J2_10_0" tl="J2" linkIndex="10" dir="r" state="o"/>
    <connection from="-E1" to="E1" fromLane="2" toLane="2" via=":J2_11_0" tl="J2" linkIndex="11" dir="T" state="o"/>
    <connection from="-E3" to="E1" fromLane="0" toLane="0" via=":J2_12_0" tl="J2" linkIndex="12" dir="l" state="O"/>
    <connection from="-E3" to="-E2" fromLane="0" toLane="0" via=":J2_13_0" tl="J2" linkIndex="13" dir="s" state="O"/>
    <connection from="-E3" to="-E2" fromLane="1" toLane="1" via=":J2_13_1" tl="J2" linkIndex="14" dir="s" state="O"/>
    <connection from="-E3" to="-E2" fromLane="2" toLane="2" via=":J2_13_2" tl="J2" linkIndex="15" dir="s" state="O"/>
    <connection from="-E3" to="-E0" fromLane="2" toLane="2" via=":J2_16_0" tl="J2" linkIndex="16" dir="r" state="o"/>
    <connection from="-E3" to="E3" fromLane="2" toLane="2" via=":J2_17_0" tl="J2" linkIndex="17" dir="T" state="o"/>
    <connection from="E0" to="E3" fromLane="0" toLane="0" via=":J2_18_0" tl="J2" linkIndex="18" dir="l" state="o"/>
    <connection from="E0" to="E1" fromLane="0" toLane="0" via=":J2_19_0" tl="J2" linkIndex="19" dir="s" state="o"/>
    <connection from="E0" to="E1" fromLane="1" toLane="1" via=":J2_19_1" tl="J2" linkIndex="20" dir="s" state="o"/>
    <connection from="E0" to="E1" fromLane="2" toLane="2" via=":J2_19_2" tl="J2" linkIndex="21" dir="s" state="o"/>
    <connection from="E0" to="-E2" fromLane="2" toLane="2" via=":J2_22_0" tl="J2" linkIndex="22" dir="r" state="o"/>
    <connection from="E0" to="-E0" fromLane="2" toLane="2" via=":J2_23_0" tl="J2" linkIndex="23" dir="T" state="o"/>
    <connection from="E2" to="-E0" fromLane="0" toLane="0" via=":J2_0_0" tl="J2" linkIndex="0" dir="l" state="O"/>
    <connection from="E2" to="E3" fromLane="0" toLane="0" via=":J2_1_0" tl="J2" linkIndex="1" dir="s" state="O"/>
    <connection from="E2" to="E3" fromLane="1" toLane="1" via=":J2_1_1" tl="J2" linkIndex="2" dir="s" state="O"/>
    <connection from="E2" to="E3" fromLane="2" toLane="2" via=":J2_1_2" tl="J2" linkIndex="3" dir="s" state="O"/>
    <connection from="E2" to="E1" fromLane="2" toLane="2" via=":J2_4_0" tl="J2" linkIndex="4" dir="r" state="o"/>
    <connection from="E2" to="-E2" fromLane="2" toLane="2" via=":J2_5_0" tl="J2" linkIndex="5" dir="T" state="o"/>

    <connection from=":J2_0" to="-E0" fromLane="0" toLane="0" dir="l" state="M"/>
    <connection from=":J2_1" to="E3" fromLane="0" toLane="0" dir="s" state="M"/>
    <connection from=":J2_1" to="E3" fromLane="1" toLane="1" dir="s" state="M"/>
    <connection from=":J2_1" to="E3" fromLane="2" toLane="2" dir="s" state="M"/>
    <connection from=":J2_4" to="E1" fromLane="0" toLane="2" via=":J2_24_0" dir="r" state="m"/>
    <connection from=":J2_24" to="E1" fromLane="0" toLane="2" dir="r" state="M"/>
    <connection from=":J2_5" to="-E2" fromLane="0" toLane="2" via=":J2_25_0" dir="T" state="m"/>
    <connection from=":J2_25" to="-E2" fromLane="0" toLane="2" dir="T" state="M"/>
    <connection from=":J2_6" to="-E2" fromLane="0" toLane="0" dir="l" state="M"/>
    <connection from=":J2_7" to="-E0" fromLane="0" toLane="0" dir="s" state="M"/>
    <connection from=":J2_7" to="-E0" fromLane="1" toLane="1" dir="s" state="M"/>
    <connection from=":J2_7" to="-E0" fromLane="2" toLane="2" dir="s" state="M"/>
    <connection from=":J2_10" to="E3" fromLane="0" toLane="2" via=":J2_26_0" dir="r" state="m"/>
    <connection from=":J2_26" to="E3" fromLane="0" toLane="2" dir="r" state="M"/>
    <connection from=":J2_11" to="E1" fromLane="0" toLane="2" via=":J2_27_0" dir="T" state="m"/>
    <connection from=":J2_27" to="E1" fromLane="0" toLane="2" dir="T" state="M"/>
    <connection from=":J2_12" to="E1" fromLane="0" toLane="0" dir="l" state="M"/>
    <connection from=":J2_13" to="-E2" fromLane="0" toLane="0" dir="s" state="M"/>
    <connection from=":J2_13" to="-E2" fromLane="1" toLane="1" dir="s" state="M"/>
    <connection from=":J2_13" to="-E2" fromLane="2" toLane="2" dir="s" state="M"/>
    <connection from=":J2_16" to="-E0" fromLane="0" toLane="2" via=":J2_28_0" dir="r" state="m"/>
    <connection from=":J2_28" to="-E0" fromLane="0" toLane="2" dir="r" state="M"/>
    <connection from=":J2_17" to="E3" fromLane="0" toLane="2" via=":J2_29_0" dir="T" state="m"/>
    <connection from=":J2_29" to="E3" fromLane="0" toLane="2" dir="T" state="M"/>
    <connection from=":J2_18" to="E3" fromLane="0" toLane="0" dir="l" state="M"/>
    <connection from=":J2_19" to="E1" fromLane="0" toLane="0" dir="s" state="M"/>
    <connection from=":J2_19" to="E1" fromLane="1" toLane="1" dir="s" state="M"/>
    <connection from=":J2_19" to="E1" fromLane="2" toLane="2" dir="s" state="M"/>
    <connection from=":J2_22" to="-E2" fromLane="0" toLane="2" via=":J2_30_0" dir="r" state="m"/>
    <connection from=":J2_30" to="-E2" fromLane="0" toLane="2" dir="r" state="M"/>
    <connection from=":J2_23" to="-E0" fromLane="0" toLane="2" via=":J2_31_0" dir="T" state="m"/>
    <connection from=":J2_31" to="-E0" fromLane="0" toLane="2" dir="T" state="M"/>

</net>
