<?xml version="1.0" encoding="UTF-8"?>
<routes>
  <vType accel="0.8" decel="4.5" length="5.0" minGap="2.5" maxSpeed="50.0" sigma="0.5" vClass="private" id="private_car" />
  <vType accel="2.0" decel="6.0" length="7.5" minGap="2.5" maxSpeed="50.0" sigma="0.5" vClass="bus" id="danfo" />
  <vType accel="1.0" decel="5.0" length="5.0" minGap="2.5" maxSpeed="40.0" sigma="0.5" vClass="motorcycle" id="motorcycle" />
  <vType accel="1.0" decel="5.0" length="7.5" minGap="2.5" maxSpeed="30.0" sigma="0.5" vClass="coach" id="brt"  />
  <vType accel="3.0" decel="3.0" length="5.0" minGap="2.5" maxSpeed="50.0" sigma="0.5" vClass="taxi" id="taxi" />
  <vType accel="2.0" decel="2.0" length="7.5" minGap="2.5" maxSpeed="50.0" sigma="0.5" vClass="trailer" id="trailer" />
  <vType accel="1.0" decel="7.0" length="5.0" minGap="2.5" maxSpeed="40.0" sigma="0.5" vClass="delivery" id="delivery" />
  <vType accel="1.0" decel="5.0" length="7.5" minGap="2.5" maxSpeed="30.0" sigma="0.5" vClass="bicycle" id="bicycle"  />
  <vType accel="3.0" decel="6.0" length="5.0" minGap="2.5" maxSpeed="50.0" sigma="0.5" vClass="truck" id="truck" />
  <vType accel="2.0" decel="6.0" length="7.5" minGap="2.5" maxSpeed="50.0" sigma="0.5" vClass="emergency" id="emergency"  color="1,0,0" />
  <vType accel="1.0" decel="4.0" length="5.0" minGap="2.5" maxSpeed="40.0" sigma="0.5" vClass="vip" id="vip" />

  <!--  ALL ROUTES ON LANE 1 -->
  <route id="route01" edges="A2 B2 G1 F1"/>
  <route id="route02" edges="F2 G2 D2 E2"/>
  <route id="route03" edges="E1 D1 H2 I2"/>
  <route id="route04" edges="I1 H1 B1 A1"/>

  <route id="route05" edges="F2 G2 H2 I2"/>
  <route id="route06" edges="E1 D1 B1 A1"/>
  <route id="route07" edges="A2 B2 D2 E2"/>
  <route id="route08" edges="I1 H1 G1 F1"/>

    <route id="route09" edges="A2 B2 H2 I2"/>
    <route id="route10" edges="F2 G2 B1 A1"/>
    <route id="route11" edges="E1 D1 G1 F1"/>
    <route id="route12" edges="I1 H1 D2 E2"/>

    <!-- ALL VEHICLES ON ROUTE1 -->
 <flow id="car-route1" number="400" begin="0" probability="0.4" type="private_car">
    <route edges="A2 B2 G1 F1" />
  </flow>
  <flow id="bus-route1" number="200" begin="0" probability="0.2" type="danfo">
      <route edges="A2 B2 G1 F1" />
  </flow>
  <flow id="motorcycle-route1" number="170" begin="0" probability="0.17" type="motorcycle">
      <route edges="A2 B2 G1 F1"/>
  </flow>
  
  <flow id="brt-route1" number="100" begin="0" probability="0.1" type="brt">
      <route edges="A2 B2 G1 F1"/>
  </flow>
  <flow id="taxi-route1" number="70" begin="0" probability="0.07" type="taxi">
      <route edges="A2 B2 G1 F1"/>
  </flow>
  <flow id="trailer-route1" number="2" begin="0" probability="0.002" type="trailer">
      <route edges="A2 B2 G1 F1"/>
  </flow>
  <flow id="delivery-route1" number="20" begin="0" probability="0.02" type="delivery">
      <route edges="A2 B2 G1 F1"/>
  </flow>
  <flow id="bicycle-route1" number="16" begin="0" probability="0.016" type="bicycle">
      <route edges="A2 B2 G1 F1"/>
  </flow>
  <flow id="truck-route1" number="10" begin="0" probability="0.01" type="truck">
      <route edges="A2 B2 G1 F1"/>
  </flow>
  <flow id="emergency-route1" number="10" begin="0" probability="0.01" type="emergency">
      <route edges="A2 B2 G1 F1"/>
  </flow>
  <flow id="vip-route1" number="2" begin="0" probability="0.002" type="vip">
      <route edges="A2 B2 G1 F1"/>
  </flow>




  <!-- ALL VEHICLES ON ROUTE2 -->
 <flow id="car-route2" number="400" begin="0" probability="0.4" type="private_car">
    <route edges="F2 G2 D2 E2"/>
  </flow>
  <flow id="bus-route2" number="200" begin="0" probability="0.2" type="danfo">
      <route edges="F2 G2 D2 E2" />
  </flow>
  <flow id="motorcycle-route2" number="170" begin="0" probability="0.17" type="motorcycle">
      <route edges="F2 G2 D2 E2"/>
  </flow>
  <flow id="brt-route2" number="100" begin="0" probability="0.1" type="brt">
      <route edges="F2 G2 D2 E2"/>
  </flow>
  <flow id="taxi-route2" number="70" begin="0" probability="0.07" type="taxi">
      <route edges="F2 G2 D2 E2"/>
  </flow>
  <flow id="trailer-route2" number="2" begin="0" probability="0.002" type="trailer">
      <route edges="F2 G2 D2 E2"/>
  </flow>
  <flow id="delivery-route2" number="20" begin="0" probability="0.02" type="delivery">
      <route edges="F2 G2 D2 E2"/>
  </flow>
  <flow id="bicycle-route2" number="16" begin="0" probability="0.016" type="bicycle">
      <route edges="F2 G2 D2 E2"/>
  </flow>
  <flow id="truck-route2" number="10" begin="0" probability="0.01" type="truck">
      <route edges="F2 G2 D2 E2"/>
  </flow>
  <flow id="emergency-route2" number="10" begin="0" probability="0.01" type="emergency">
      <route edges="F2 G2 D2 E2"/>
  </flow>
  <flow id="vip-route2" number="2" begin="0" probability="0.002" type="vip">
      <route edges="F2 G2 D2 E2"/>
  </flow>


  <!-- ALL VEHICLES ON ROUTE3 -->
 <flow id="car-route3" number="400" begin="0" probability="0.4" type="private_car">
    <route edges="E1 D1 H2 I2"/>
  </flow>
  <flow id="bus-route3" number="200" begin="0" probability="0.2" type="danfo">
      <route edges="E1 D1 H2 I2" />
  </flow>
  <flow id="motorcycle-route3" number="170" begin="0" probability="0.17" type="motorcycle">
      <route edges="E1 D1 H2 I2"/>
  </flow>
  <flow id="brt-route3" number="100" begin="0" probability="0.1" type="brt">
      <route edges="E1 D1 H2 I2"/>
  </flow>
  <flow id="taxi-route3" number="70" begin="0" probability="0.07" type="taxi">
      <route edges="E1 D1 H2 I2"/>
  </flow>
  <flow id="trailer-route3" number="2" begin="0" probability="0.002" type="trailer">
      <route edges="E1 D1 H2 I2"/>
  </flow>
  <flow id="delivery-route3" number="20" begin="0" probability="0.02" type="delivery">
      <route edges="E1 D1 H2 I2"/>
  </flow>
  <flow id="bicycle-route3" number="16" begin="0" probability="0.016" type="bicycle">
      <route edges="E1 D1 H2 I2"/>
  </flow>
  <flow id="truck-route3" number="10" begin="0" probability="0.01" type="truck">
      <route edges="E1 D1 H2 I2"/>
  </flow>
  <flow id="emergency-route3" number="10" begin="0" probability="0.01" type="emergency">
      <route edges="E1 D1 H2 I2"/>
  </flow>
  <flow id="vip-route3" number="2" begin="0" probability="0.002" type="vip">
      <route edges="E1 D1 H2 I2"/>
  </flow>


  <!-- ALL VEHICLES ON ROUTE4 -->
 <flow id="car-route4" number="400" begin="0" probability="0.4" type="private_car">
    <route edges="I1 H1 B1 A1"/>
  </flow>
  <flow id="bus-route4" number="200" begin="0" probability="0.2" type="danfo">
      <route edges="I1 H1 B1 A1" />
  </flow>
  <flow id="motorcycle-route4" number="170" begin="0" probability="0.17" type="motorcycle">
      <route edges="I1 H1 B1 A1"/>
  </flow>
  <flow id="brt-route4" number="100" begin="0" probability="0.1" type="brt">
      <route edges="I1 H1 B1 A1"/>
  </flow>
  <flow id="taxi-route4" number="70" begin="0" probability="0.07" type="taxi">
      <route edges="I1 H1 B1 A1"/>
  </flow>
  <flow id="trailer-route4" number="2" begin="0" probability="0.002" type="trailer">
      <route edges="I1 H1 B1 A1"/>
  </flow>
  <flow id="delivery-route4" number="20" begin="0" probability="0.02" type="delivery">
      <route edges="I1 H1 B1 A1"/>
  </flow>
  <flow id="bicycle-route4" number="16" begin="0" probability="0.016" type="bicycle">
      <route edges="I1 H1 B1 A1"/>
  </flow>
  <flow id="truck-route4" number="10" begin="0" probability="0.01" type="truck">
      <route edges="I1 H1 B1 A1"/>
  </flow>
  <flow id="emergency-route4" number="10" begin="0" probability="0.01" type="emergency">
      <route edges="I1 H1 B1 A1"/>
  </flow>
  <flow id="vip-route4" number="2" begin="0" probability="0.02" type="vip">
      <route edges="I1 H1 B1 A1"/>
  </flow>






  <!-- ALL VEHICLES ON ROUTE5 -->
 <flow id="car-route5" number="400" begin="0" probability="0.4" type="private_car">
    <route edges="F2 G2 H2 I2"/>
  </flow>
  <flow id="bus-route5" number="200" begin="0" probability="0.2" type="danfo">
      <route edges="F2 G2 H2 I2" />
  </flow>
  <flow id="motorcycle-route5" number="170" begin="0" probability="0.17" type="motorcycle">
      <route edges="F2 G2 H2 I2"/>
  </flow>
  <flow id="brt-route5" number="100" begin="0" probability="0.1" type="brt">
      <route edges="F2 G2 H2 I2"/>
  </flow>
  <flow id="taxi-route5" number="70" begin="0" probability="0.07" type="taxi">
      <route edges="F2 G2 H2 I2"/>
  </flow>
  <flow id="trailer-route5" number="2" begin="0" probability="0.002" type="trailer">
      <route edges="F2 G2 H2 I2"/>
  </flow>
  <flow id="delivery-route5" number="20" begin="0" probability="0.02" type="delivery">
      <route edges="F2 G2 H2 I2"/>
  </flow>
  <flow id="bicycle-route5" number="16" begin="0" probability="0.016" type="bicycle">
      <route edges="F2 G2 H2 I2"/>
  </flow>
  <flow id="truck-route5" number="10" begin="0" probability="0.01" type="truck">
      <route edges="F2 G2 H2 I2"/>
  </flow>
  <flow id="emergency-route5" number="10" begin="0" probability="0.501" type="emergency">
      <route edges="F2 G2 H2 I2"/>
  </flow>
  <flow id="vip-route5" number="2" begin="0" probability="0.02" type="vip">
      <route edges="F2 G2 H2 I2"/>
  </flow>



  <!-- ALL VEHICLES ON ROUTE6 -->
 <flow id="car-route6" number="400" begin="0" probability="0.4" type="private_car">
    <route edges="E1 D1 B1 A1"/>
  </flow>
  <flow id="bus-route6" number="200" begin="0" probability="0.2" type="danfo">
      <route edges="E1 D1 B1 A1" />
  </flow>
  <flow id="motorcycle-route6" number="170" begin="0" probability="0.17" type="motorcycle">
      <route edges="E1 D1 B1 A1"/>
  </flow>
  <flow id="brt-route6" number="100" begin="0" probability="0.1" type="brt">
      <route edges="E1 D1 B1 A1"/>
  </flow>
  <flow id="taxi-route6" number="70" begin="0" probability="0.07" type="taxi">
      <route edges="E1 D1 B1 A1"/>
  </flow>
  <flow id="trailer-route6" number="2" begin="0" probability="0.002" type="trailer">
      <route edges="E1 D1 B1 A1"/>
  </flow>
  <flow id="delivery-route6" number="20" begin="0" probability="0.02" type="delivery">
      <route edges="E1 D1 B1 A1"/>
  </flow>
  <flow id="bicycle-route6" number="16" begin="0" probability="0.16" type="bicycle">
      <route edges="E1 D1 B1 A1"/>
  </flow>
  <flow id="truck-route6" number="10" begin="0" probability="0.01" type="truck">
      <route edges="E1 D1 B1 A1"/>
  </flow>
  <flow id="emergency-route6" number="10" begin="0" probability="0.01" type="emergency">
      <route edges="E1 D1 B1 A1"/>
  </flow>
  <flow id="vip-route6" number="2" begin="0" probability="0.002" type="vip">
      <route edges="E1 D1 B1 A1"/>
  </flow>


  <!-- ALL VEHICLES ON ROUTE7 -->
 <flow id="car-route7" number="400" begin="0" probability="0.4" type="private_car">
    <route edges="A2 B2 D2 E2"/>
  </flow>
  <flow id="bus-route7" number="200" begin="0" probability="0.2" type="danfo">
      <route edges="A2 B2 D2 E2" />
  </flow>
  <flow id="motorcycle-route7" number="170" begin="0" probability="0.17" type="motorcycle">
      <route edges="A2 B2 D2 E2"/>
  </flow>
  <flow id="brt-route7" number="100" begin="0" probability="0.1" type="brt">
      <route edges="A2 B2 D2 E2"/>
  </flow>
  <flow id="taxi-route7" number="70" begin="0" probability="0.07" type="taxi">
      <route edges="A2 B2 D2 E2"/>
  </flow>
  <flow id="trailer-route7" number="2" begin="0" probability="0.002" type="trailer">
      <route edges="A2 B2 D2 E2"/>
  </flow>
  <flow id="delivery-route7" number="20" begin="0" probability="0.02" type="delivery">
      <route edges="A2 B2 D2 E2"/>
  </flow>
  <flow id="bicycle-route7" number="16" begin="0" probability="0.016" type="bicycle">
      <route edges="A2 B2 D2 E2"/>
  </flow>
  <flow id="truck-route7" number="10" begin="0" probability="0.01" type="truck">
      <route edges="A2 B2 D2 E2"/>
  </flow>
  <flow id="emergency-route7" number="10" begin="0" probability="0.01" type="emergency">
      <route edges="A2 B2 D2 E2"/>
  </flow>
  <flow id="vip-route7" number="2" begin="0" probability="0.002" type="vip">
      <route edges="A2 B2 D2 E2"/>
  </flow>


  <!-- ALL VEHICLES ON ROUTE8 -->
 <flow id="car-route8" number="400" begin="0" probability="0.4" type="private_car">
    <route edges="I1 H1 G1 F1"/>
  </flow>
  <flow id="bus-route8" number="200" begin="0" probability="0.2" type="danfo">
      <route edges="I1 H1 G1 F1" />
  </flow>
  <flow id="motorcycle-route8" number="170" begin="0" probability="0.17" type="motorcycle">
      <route edges="I1 H1 G1 F1"/>
  </flow>
  <flow id="brt-route8" number="100" begin="0" probability="0.1" type="brt">
      <route edges="I1 H1 G1 F1"/>
  </flow>
  <flow id="taxi-route8" number="70" begin="0" probability="0.07" type="taxi">
      <route edges="I1 H1 G1 F1"/>
  </flow>
  <flow id="trailer-route8" number="2" begin="0" probability="0.002" type="trailer">
      <route edges="I1 H1 G1 F1"/>
  </flow>
  <flow id="delivery-route8" number="20" begin="0" probability="0.02" type="delivery">
      <route edges="I1 H1 G1 F1"/>
  </flow>
  <flow id="bicycle-route8" number="16" begin="0" probability="0.016" type="bicycle">
      <route edges="I1 H1 G1 F1"/>
  </flow>
  <flow id="truck-route8" number="10" begin="0" probability="0.01" type="truck">
      <route edges="I1 H1 G1 F1"/>
  </flow>
  <flow id="emergency-route8" number="10" begin="0" probability="0.01" type="emergency">
      <route edges="I1 H1 G1 F1"/>
  </flow>
  <flow id="vip-route8" number="2" begin="0" probability="0.002" type="vip">
      <route edges="I1 H1 G1 F1"/>
  </flow>



    <!-- ALL VEHICLES ON ROUTE9 -->
    <flow id="car-route9" number="400" begin="0" probability="0.4" type="private_car">
        <route edges="A2 B2 H2 I2"/>
    </flow>
    <flow id="bus-route9" number="200" begin="0" probability="0.2" type="danfo">
        <route edges="A2 B2 H2 I2" />
    </flow>
    <flow id="motorcycle-route9" number="170" begin="0" probability="0.17" type="motorcycle">
        <route edges="A2 B2 H2 I2"/>
    </flow>
    <flow id="brt-route9" number="100" begin="0" probability="0.1" type="brt">
        <route edges="A2 B2 H2 I2"/>
    </flow>
    <flow id="taxi-route9" number="70" begin="0" probability="0.07" type="taxi">
        <route edges="A2 B2 H2 I2"/>
    </flow>
    <flow id="trailer-route9" number="2" begin="0" probability="0.002" type="trailer">
        <route edges="A2 B2 H2 I2"/>
    </flow>
    <flow id="delivery-route9" number="20" begin="0" probability="0.02" type="delivery">
        <route edges="A2 B2 H2 I2"/>
    </flow>
    <flow id="bicycle-route9" number="16" begin="0" probability="0.016" type="bicycle">
        <route edges="I1 H1 G1 F1"/>
    </flow>
    <flow id="truck-route9" number="10" begin="0" probability="0.01" type="truck">
        <route edges="A2 B2 H2 I2"/>
    </flow>
    <flow id="emergency-route9" number="10" begin="0" probability="0.01" type="emergency">
        <route edges="A2 B2 H2 I2"/>
    </flow>
    <flow id="vip-route9" number="2" begin="0" probability="0.002" type="vip">
        <route edges="A2 B2 H2 I2"/>
    </flow>




    <!-- ALL VEHICLES ON ROUTE 10 -->
    <flow id="car-route10" number="400" begin="0" probability="0.4" type="private_car">
        <route edges="F2 G2 B1 A1"/>
    </flow>
    <flow id="bus-route10" number="200" begin="0" probability="0.2" type="danfo">
        <route edges="F2 G2 B1 A1" />
    </flow>
    <flow id="motorcycle-route10" number="170" begin="0" probability="0.17" type="motorcycle">
        <route edges="F2 G2 B1 A1"/>
    </flow>
    <flow id="brt-route10" number="100" begin="0" probability="0.1" type="brt">
        <route edges="F2 G2 B1 A1"/>
    </flow>
    <flow id="taxi-route10" number="70" begin="0" probability="0.07" type="taxi">
        <route edges="F2 G2 B1 A1"/>
    </flow>
    <flow id="trailer-route10" number="2" begin="0" probability="0.002" type="trailer">
        <route edges="F2 G2 B1 A1"/>
    </flow>
    <flow id="delivery-route10" number="20" begin="0" probability="0.02" type="delivery">
        <route edges="F2 G2 B1 A1"/>
    </flow>
    <flow id="bicycle-route10" number="16" begin="0" probability="0.016" type="bicycle">
        <route edges="F2 G2 B1 A1"/>
    </flow>
    <flow id="truck-route10" number="10" begin="0" probability="0.01" type="truck">
        <route edges="F2 G2 B1 A1"/>
    </flow>
    <flow id="emergency-route10" number="10" begin="0" probability="0.01" type="emergency">
        <route edges="F2 G2 B1 A1"/>
    </flow>
    <flow id="vip-route10" number="2" begin="0" probability="0.002" type="vip">
        <route edges="F2 G2 B1 A1"/>
    </flow>


    <!-- ALL VEHICLES ON ROUTE 11 -->
    <flow id="car-route11" number="400" begin="0" probability="0.4" type="private_car">
        <route edges="E1 D1 G1 F1"/>
    </flow>
    <flow id="bus-route11" number="200" begin="0" probability="0.2" type="danfo">
        <route edges="E1 D1 G1 F1" />
    </flow>
    <flow id="motorcycle-route11" number="170" begin="0" probability="0.17" type="motorcycle">
        <route edges="E1 D1 G1 F1"/>
    </flow>
    <flow id="brt-route11" number="100" begin="0" probability="0.1" type="brt">
        <route edges="E1 D1 G1 F1"/>
    </flow>
    <flow id="taxi-route11" number="70" begin="0" probability="0.07" type="taxi">
        <route edges="E1 D1 G1 F1"/>
    </flow>
    <flow id="trailer-route11" number="2" begin="0" probability="0.002" type="trailer">
        <route edges="E1 D1 G1 F1"/>
    </flow>
    <flow id="delivery-route11" number="20" begin="0" probability="0.02" type="delivery">
        <route edges="E1 D1 G1 F1"/>
    </flow>
    <flow id="bicycle-route11" number="16" begin="0" probability="0.016" type="bicycle">
        <route edges="E1 D1 G1 F1"/>
    </flow>
    <flow id="truck-route11" number="10" begin="0" probability="0.01" type="truck">
        <route edges="E1 D1 G1 F1"/>
    </flow>
    <flow id="emergency-route11" number="10" begin="0" probability="0.01" type="emergency">
        <route edges="E1 D1 G1 F1"/>
    </flow>
    <flow id="vip-route11" number="2" begin="0" probability="0.002" type="vip">
        <route edges="E1 D1 G1 F1"/>
    </flow>



    <!-- ALL VEHICLES ON ROUTE 12 -->
    <flow id="car-route12" number="400" begin="0" probability="0.4" type="private_car">
        <route edges="I1 H1 D2 E2"/>
    </flow>
    <flow id="bus-route12" number="200" begin="0" probability="0.2" type="danfo">
        <route edges="I1 H1 D2 E2" />
    </flow>
    <flow id="motorcycle-route12" number="170" begin="0" probability="0.17" type="motorcycle">
        <route edges="I1 H1 D2 E2"/>
    </flow>
    <flow id="brt-route12" number="100" begin="0" probability="0.1" type="brt">
        <route edges="I1 H1 D2 E2"/>
    </flow>
    <flow id="taxi-route12" number="70" begin="0" probability="0.07" type="taxi">
        <route edges="I1 H1 D2 E2"/>
    </flow>
    <flow id="trailer-route12" number="2" begin="0" probability="0.002" type="trailer">
        <route edges="I1 H1 D2 E2"/>
    </flow>
    <flow id="delivery-route12" number="20" begin="0" probability="0.02" type="delivery">
        <route edges="I1 H1 D2 E2"/>
    </flow>
    <flow id="bicycle-route12" number="16" begin="0" probability="0.016" type="bicycle">
        <route edges="I1 H1 D2 E2"/>
    </flow>
    <flow id="truck-route12" number="10" begin="0" probability="0.01" type="truck">
        <route edges="I1 H1 D2 E2"/>
    </flow>
    <flow id="emergency-route12" number="10" begin="0" probability="0.01" type="emergency">
        <route edges="I1 H1 D2 E2"/>
    </flow>
    <flow id="vip-route12" number="2" begin="0" probability="0.002" type="vip">
        <route edges="I1 H1 D2 E2"/>
    </flow>
</routes>